Version 4
SHEET 1 880 680
WIRE 112 -48 80 -48
WIRE 208 -48 112 -48
WIRE 304 -48 208 -48
WIRE 336 -48 304 -48
WIRE 480 -48 336 -48
WIRE 112 -16 112 -48
WIRE 304 -16 304 -48
WIRE 480 -16 480 -48
WIRE 208 0 160 0
WIRE 256 0 208 0
WIRE -384 16 -384 -16
WIRE 80 32 80 -48
WIRE 112 32 80 32
WIRE 336 32 336 -48
WIRE 336 32 304 32
WIRE 480 80 480 64
WIRE 112 112 112 80
WIRE 208 112 208 0
WIRE 208 112 112 112
WIRE -384 144 -384 96
WIRE 304 144 304 80
WIRE 384 144 304 144
WIRE 480 144 384 144
WIRE 528 144 480 144
WIRE 112 176 112 112
WIRE 304 176 304 144
WIRE -96 208 -96 192
WIRE 208 224 112 224
WIRE 304 224 208 224
WIRE -384 240 -384 224
WIRE 208 240 208 224
WIRE 64 256 48 256
WIRE 368 256 352 256
WIRE 480 256 480 224
WIRE 480 272 480 256
WIRE 112 304 112 272
WIRE 208 304 112 304
WIRE 304 304 304 272
WIRE 304 304 208 304
WIRE -96 320 -96 288
WIRE 32 320 -96 320
WIRE -96 336 -96 320
WIRE 208 336 208 304
WIRE -96 384 -128 384
WIRE 240 384 208 384
WIRE 32 416 32 320
WIRE 32 416 -48 416
WIRE 160 416 32 416
WIRE -128 432 -128 384
WIRE -96 432 -128 432
WIRE 240 432 240 384
WIRE 240 432 208 432
WIRE -96 448 -96 432
WIRE 208 448 208 432
WIRE 480 448 480 432
FLAG -96 448 0
FLAG 208 448 0
FLAG 480 80 0
FLAG 208 -48 VDD
FLAG -384 -16 Vin1
FLAG 368 256 Vin1
FLAG 208 240 0
FLAG 528 144 Vout
FLAG -384 240 0
FLAG -96 192 VDD
FLAG 384 208 0
FLAG 480 448 0
FLAG 480 256 Vref
FLAG 48 256 Vref
SYMBOL nmos4 64 176 R0
WINDOW 0 44 32 Left 2
WINDOW 3 35 66 Left 2
SYMATTR InstName M1
SYMATTR Value CMOSN
SYMATTR Value2 l=3.5u w=3.5u m=6
SYMBOL nmos4 352 176 M0
WINDOW 0 47 32 Left 2
WINDOW 3 38 67 Left 2
SYMATTR InstName M2
SYMATTR Value CMOSN
SYMATTR Value2 l=3.5u w=3.5u m=6
SYMBOL pmos4 160 80 R180
SYMATTR InstName M3
SYMATTR Value CMOSP
SYMATTR Value2 l=3.5u w=42u m=16
SYMBOL pmos4 256 80 M180
SYMATTR InstName M4
SYMATTR Value CMOSP
SYMATTR Value2 l=3.5u w=42u m=16
SYMBOL nmos4 160 336 R0
SYMATTR InstName M5
SYMATTR Value CMOSN
SYMATTR Value2 l=0.5u w=1u m=38
SYMBOL nmos4 -48 336 M0
WINDOW 3 47 66 Left 2
SYMATTR Value CMOSN
SYMATTR InstName M6
SYMATTR Value2 l=0.5u w=1u m=4
SYMBOL current -96 208 R0
WINDOW 123 0 0 Left 0
WINDOW 39 0 0 Left 0
SYMATTR InstName I1
SYMATTR Value 20µ
SYMBOL voltage -384 128 R0
WINDOW 123 0 0 Left 0
WINDOW 39 0 0 Left 0
SYMATTR InstName V1
SYMATTR Value 0.9
SYMBOL voltage -384 0 R0
WINDOW 123 -35 97 Left 2
WINDOW 39 0 0 Left 0
WINDOW 3 -35 125 Left 2
SYMATTR Value2 AC 0.5
SYMATTR InstName V2
SYMATTR Value SINE(0 0.9 1k)
SYMBOL voltage 480 -32 R0
WINDOW 123 0 0 Left 0
WINDOW 39 0 0 Left 0
SYMATTR InstName V3
SYMATTR Value 1.8
SYMBOL cap 368 144 R0
WINDOW 0 24 15 Left 2
WINDOW 3 22 47 Left 2
SYMATTR InstName C1
SYMATTR Value 1p
SYMBOL res 464 128 R0
SYMATTR InstName R1
SYMATTR Value 325k
SYMBOL res 464 256 R0
SYMATTR InstName R2
SYMATTR Value 52k
SYMBOL voltage 480 336 R0
WINDOW 123 0 0 Left 0
WINDOW 39 0 0 Left 0
SYMATTR InstName V4
SYMATTR Value 0.9
TEXT -480 328 Left 2 !.lib 180nm_models.txt
TEXT -472 352 Left 2 !.tran 10m
TEXT -480 376 Left 2 !.op
